130
non-opt
C	0.000000	-0.343000	0.000000
C	1.188187	0.343000	0.000000
C	2.376374	-0.343000	0.000000
C	3.564561	0.343000	0.000000
C	4.752747	-0.343000	0.000000
C	5.940934	0.343000	0.000000
C	7.129121	-0.343000	0.000000
C	8.317308	0.343000	0.000000
C	9.505495	-0.343000	0.000000
C	10.693682	0.343000	0.000000
C	11.881869	-0.343000	0.000000
C	13.070055	0.343000	0.000000
C	14.258242	-0.343000	0.000000
C	15.446429	0.343000	0.000000
C	16.634616	-0.343000	0.000000
C	17.822803	0.343000	0.000000
C	19.010990	-0.343000	0.000000
C	20.199177	0.343000	0.000000
C	21.387363	-0.343000	0.000000
C	22.575550	0.343000	0.000000
C	23.763737	-0.343000	0.000000
C	24.951924	0.343000	0.000000
C	26.140111	-0.343000	0.000000
C	27.328298	0.343000	0.000000
C	28.516484	-0.343000	0.000000
C	29.704671	0.343000	0.000000
C	30.892858	-0.343000	0.000000
C	32.081045	0.343000	0.000000
C	33.269232	-0.343000	0.000000
C	34.457419	0.343000	0.000000
C	35.645606	-0.343000	0.000000
C	36.833792	0.343000	0.000000
C	38.021979	-0.343000	0.000000
C	39.210166	0.343000	0.000000
C	40.398353	-0.343000	0.000000
C	41.586540	0.343000	0.000000
C	42.774727	-0.343000	0.000000
C	43.962914	0.343000	0.000000
C	45.151100	-0.343000	0.000000
C	46.339287	0.343000	0.000000
C	47.527474	-0.343000	0.000000
C	48.715661	0.343000	0.000000
C	49.903848	-0.343000	0.000000
C	51.092035	0.343000	0.000000
C	52.280222	-0.343000	0.000000
C	53.468408	0.343000	0.000000
C	54.656595	-0.343000	0.000000
C	55.844782	0.343000	0.000000
C	57.032969	-0.343000	0.000000
C	58.221156	0.343000	0.000000
C	59.409343	-0.343000	0.000000
C	60.597530	0.343000	0.000000
C	61.785716	-0.343000	0.000000
C	62.973903	0.343000	0.000000
C	64.162090	-0.343000	0.000000
C	65.350277	0.343000	0.000000
C	66.538464	-0.343000	0.000000
C	67.726651	0.343000	0.000000
C	68.914838	-0.343000	0.000000
C	70.103024	0.343000	0.000000
C	71.291211	-0.343000	0.000000
C	72.479398	0.343000	0.000000
C	73.667585	-0.343000	0.000000
C	74.855772	0.343000	0.000000
H	-0.950030	0.205500	0.000000
H	0.000000	-1.440000	0.000000
H	1.188187	1.440000	0.000000
H	2.376374	-1.440000	0.000000
H	3.564561	1.440000	0.000000
H	4.752747	-1.440000	0.000000
H	5.940934	1.440000	0.000000
H	7.129121	-1.440000	0.000000
H	8.317308	1.440000	0.000000
H	9.505495	-1.440000	0.000000
H	10.693682	1.440000	0.000000
H	11.881869	-1.440000	0.000000
H	13.070055	1.440000	0.000000
H	14.258242	-1.440000	0.000000
H	15.446429	1.440000	0.000000
H	16.634616	-1.440000	0.000000
H	17.822803	1.440000	0.000000
H	19.010990	-1.440000	0.000000
H	20.199177	1.440000	0.000000
H	21.387363	-1.440000	0.000000
H	22.575550	1.440000	0.000000
H	23.763737	-1.440000	0.000000
H	24.951924	1.440000	0.000000
H	26.140111	-1.440000	0.000000
H	27.328298	1.440000	0.000000
H	28.516484	-1.440000	0.000000
H	29.704671	1.440000	0.000000
H	30.892858	-1.440000	0.000000
H	32.081045	1.440000	0.000000
H	33.269232	-1.440000	0.000000
H	34.457419	1.440000	0.000000
H	35.645606	-1.440000	0.000000
H	36.833792	1.440000	0.000000
H	38.021979	-1.440000	0.000000
H	39.210166	1.440000	0.000000
H	40.398353	-1.440000	0.000000
H	41.586540	1.440000	0.000000
H	42.774727	-1.440000	0.000000
H	43.962914	1.440000	0.000000
H	45.151100	-1.440000	0.000000
H	46.339287	1.440000	0.000000
H	47.527474	-1.440000	0.000000
H	48.715661	1.440000	0.000000
H	49.903848	-1.440000	0.000000
H	51.092035	1.440000	0.000000
H	52.280222	-1.440000	0.000000
H	53.468408	1.440000	0.000000
H	54.656595	-1.440000	0.000000
H	55.844782	1.440000	0.000000
H	57.032969	-1.440000	0.000000
H	58.221156	1.440000	0.000000
H	59.409343	-1.440000	0.000000
H	60.597530	1.440000	0.000000
H	61.785716	-1.440000	0.000000
H	62.973903	1.440000	0.000000
H	64.162090	-1.440000	0.000000
H	65.350277	1.440000	0.000000
H	66.538464	-1.440000	0.000000
H	67.726651	1.440000	0.000000
H	68.914838	-1.440000	0.000000
H	70.103024	1.440000	0.000000
H	71.291211	-1.440000	0.000000
H	72.479398	1.440000	0.000000
H	73.667585	-1.440000	0.000000
H	74.855772	1.440000	0.000000
H	75.805802	-0.205500	0.000000
