34
non-opt
C	0.000000	-0.343000	0.000000
C	1.188187	0.343000	0.000000
C	2.376374	-0.343000	0.000000
C	3.564561	0.343000	0.000000
C	4.752747	-0.343000	0.000000
C	5.940934	0.343000	0.000000
C	7.129121	-0.343000	0.000000
C	8.317308	0.343000	0.000000
C	9.505495	-0.343000	0.000000
C	10.693682	0.343000	0.000000
C	11.881869	-0.343000	0.000000
C	13.070055	0.343000	0.000000
C	14.258242	-0.343000	0.000000
C	15.446429	0.343000	0.000000
C	16.634616	-0.343000	0.000000
C	17.822803	0.343000	0.000000
H	-0.950030	0.205500	0.000000
H	0.000000	-1.440000	0.000000
H	1.188187	1.440000	0.000000
H	2.376374	-1.440000	0.000000
H	3.564561	1.440000	0.000000
H	4.752747	-1.440000	0.000000
H	5.940934	1.440000	0.000000
H	7.129121	-1.440000	0.000000
H	8.317308	1.440000	0.000000
H	9.505495	-1.440000	0.000000
H	10.693682	1.440000	0.000000
H	11.881869	-1.440000	0.000000
H	13.070055	1.440000	0.000000
H	14.258242	-1.440000	0.000000
H	15.446429	1.440000	0.000000
H	16.634616	-1.440000	0.000000
H	17.822803	1.440000	0.000000
H	18.772833	-0.205500	0.000000
