14
non-opt
C	0.000000	-0.343000	0.000000
C	1.188187	0.343000	0.000000
C	2.376374	-0.343000	0.000000
C	3.564561	0.343000	0.000000
C	4.752747	-0.343000	0.000000
C	5.940934	0.343000	0.000000
H	-0.950030	0.205500	0.000000
H	0.000000	-1.440000	0.000000
H	1.188187	1.440000	0.000000
H	2.376374	-1.440000	0.000000
H	3.564561	1.440000	0.000000
H	4.752747	-1.440000	0.000000
H	5.940934	1.440000	0.000000
H	6.890964	-0.205500	0.000000
