343

Cl    15.4817485809   15.4817485809   21.8945002556
S     19.3717485809   25.5017485809   20.0145002556
O     17.4317485809   27.7617485809   20.7645002556
O     15.6017485809   26.8817485809   19.9845002556
O     14.7817485809   21.2817485809   20.4145002556
C     16.6117485809   17.9117485809   23.5845002556
C     14.0617485809   16.5717485809   19.2945002556
C     15.2517485809   22.4617485809   21.1545002556
C     14.7817485809   23.7817485809   20.4945002556
C     20.3617485809   21.7417485809   18.7045002556
C     19.0817485809   21.1917485809   18.3345002556
C     20.5317485809   23.0417485809   19.2245002556
C     15.5217485809   24.1217485809   19.0945002556
C     17.9417485809   22.0117485809   18.5445002556
C     15.6617485809   19.6117485809   21.9745002556
C     14.3817485809   18.9817485809   20.0845002556
C     16.8217485809   26.8117485809   20.0745002556
C     15.2617485809   17.2317485809   21.5545002556
C     19.3917485809   23.7917485809   19.4545002556
C     17.5717485809   25.5917485809   19.7545002556
C     14.8917485809   19.9617485809   20.8745002556
C     15.7417485809   18.2717485809   22.3945002556
C     14.6117485809   17.6117485809   20.3145002556
C     18.0917485809   23.2717485809   19.0945002556
C     17.0417485809   24.3417485809   19.3245002556
H     16.2217485809   17.0617485809   24.1645002556
H     17.6417485809   17.7317485809   23.2445002556
H     16.6717485809   18.6617485809   24.3845002556
H     12.9717485809   16.5117485809   19.2545002556
H     14.4617485809   16.7817485809   18.2945002556
H     14.3117485809   15.5317485809   19.5145002556
H     16.3217485809   22.6317485809   21.3045002556
H     14.8217485809   22.4017485809   22.1645002556
H     15.0917485809   24.5217485809   21.2445002556
H     13.6917485809   23.8217485809   20.3345002556
H     21.2317485809   21.1417485809   18.4645002556
H     18.9717485809   20.1917485809   17.9445002556
H     21.5117485809   23.5017485809   19.3445002556
H     15.0417485809   24.9717485809   18.5845002556
H     15.3017485809   23.3017485809   18.4045002556
H     16.9717485809   21.7517485809   18.1345002556
H     16.1317485809   20.3717485809   22.5845002556
H     13.7617485809   19.3017485809   19.2545002556
H     18.1017485809   27.3617485809   21.3445002556
C     26.7717485809   20.3217485809   13.3945002556
H     27.0617485809   19.2717485809   13.4245002556
C     26.2417485809   20.3517485809   14.8045002556
O     26.7817485809   19.6317485809   15.6545002556
N     25.2517485809   21.2117485809   15.1545002556
H     24.8417485809   21.7217485809   14.3845002556
C     24.6417485809   21.2217485809   16.4645002556
H     25.4517485809   21.2617485809   17.1945002556
C     23.8017485809   19.9417485809   16.6545002556
O     23.8417485809   19.5117485809   17.8545002556
C     23.8217485809   22.5117485809   16.5445002556
H     23.0017485809   22.4317485809   15.8245002556
H     24.4417485809   23.3717485809   16.3045002556
H     23.4117485809   22.6317485809   17.5445002556
N     22.9717485809   19.4317485809   15.6845002556
H     22.9117485809   20.0917485809   14.9245002556
C     22.0317485809   18.3517485809   15.7845002556
H     21.3317485809   18.4917485809   16.6145002556
C     21.1717485809   18.1717485809   14.4345002556
H     21.8417485809   18.2917485809   13.5845002556
H     20.8717485809   17.1317485809   14.3345002556
C     19.9317485809   19.1517485809   14.2945002556
C     19.7917485809   20.2717485809   15.0845002556
H     20.5917485809   20.4317485809   15.7945002556
C     19.0317485809   18.9817485809   13.1845002556
H     19.3217485809   18.1717485809   12.5345002556
C     18.7317485809   21.1517485809   14.9045002556
H     18.6317485809   21.9617485809   15.6145002556
C     18.0517485809   19.9517485809   12.8245002556
H     17.4517485809   19.8017485809   11.9445002556
C     17.9217485809   21.0517485809   13.7245002556
H     17.1217485809   21.7517485809   13.5445002556
C     22.9917485809   17.1117485809   20.6445002556
H     23.3817485809   17.3817485809   21.6245002556
C     21.7917485809   18.0917485809   20.3245002556
H     21.1617485809   17.7717485809   19.4945002556
H     22.1017485809   19.1017485809   20.0145002556
C     20.9517485809   18.2917485809   21.5345002556
H     21.5817485809   18.6917485809   22.3345002556
H     20.6517485809   17.3017485809   21.8645002556
S     19.5317485809   19.3217485809   21.2945002556
C     20.2417485809   20.8517485809   21.7645002556
H     19.4617485809   21.6117485809   21.7345002556
H     21.1717485809   20.9617485809   21.2045002556
H     20.5417485809   20.7617485809   22.8045002556
C     19.4117485809   13.6517485809   22.6345002556
H     20.3817485809   14.1017485809   22.4445002556
C     18.6717485809   14.4417485809   23.7045002556
H     17.9117485809   15.1117485809   23.3045002556
H     19.3917485809   15.0517485809   24.2545002556
H     18.2617485809   13.7117485809   24.4045002556
C     15.7217485809   12.7917485809   24.9045002556
H     16.2917485809   11.8717485809   24.7645002556
H     15.9117485809   13.4317485809   24.0345002556
H     16.1217485809   13.2817485809   25.7845002556
C     15.9517485809   18.3217485809   28.5445002556
H     16.7617485809   18.8517485809   29.0445002556
C     15.5917485809   19.2317485809   27.3945002556
O     16.2917485809   20.1917485809   27.1145002556
C     16.5217485809   17.0217485809   28.0445002556
H     16.0417485809   16.7117485809   27.1145002556
C     18.0117485809   17.2217485809   27.7845002556
H     18.1517485809   18.1617485809   27.2645002556
H     18.6017485809   17.2717485809   28.7045002556
H     18.4717485809   16.4217485809   27.2045002556
C     16.4117485809   15.7417485809   28.9345002556
H     16.7917485809   14.8617485809   28.4145002556
H     15.3917485809   15.4917485809   29.2245002556
H     17.1117485809   15.7017485809   29.7645002556
N     14.4217485809   19.0217485809   26.7745002556
H     13.9217485809   18.1517485809   26.9545002556
C     13.9217485809   19.9717485809   25.6945002556
H     14.7617485809   20.0517485809   25.0045002556
C     13.6517485809   21.3117485809   26.1845002556
O     14.0117485809   22.2917485809   25.5345002556
C     12.6917485809   19.3817485809   24.9645002556
H     12.5517485809   20.1817485809   24.2345002556
H     11.8017485809   19.3517485809   25.6045002556
C     12.8317485809   18.0517485809   24.2045002556
H     13.0817485809   17.2817485809   24.9345002556
H     13.7017485809   18.1017485809   23.5545002556
S     11.2017485809   17.5417485809   23.3645002556
C     11.4317485809   15.7817485809   23.2745002556
H     12.2917485809   15.4617485809   22.6845002556
H     11.7017485809   15.3817485809   24.2445002556
H     10.5017485809   15.3917485809   22.8745002556
N     13.0917485809   21.4117485809   27.4045002556
H     12.8017485809   20.5117485809   27.7745002556
C     12.6717485809   22.7117485809   27.9645002556
H     12.1017485809   23.2717485809   27.2145002556
C     13.9317485809   23.5617485809   28.2845002556
O     13.9417485809   24.8017485809   28.1345002556
N     15.1517485809   22.9717485809   28.4445002556
H     15.0917485809   21.9917485809   28.6945002556
C     16.3117485809   23.7117485809   28.9545002556
H     15.8717485809   24.5717485809   29.4545002556
C     17.2717485809   24.2417485809   27.8345002556
O     18.3417485809   24.8417485809   28.0245002556
N     16.8117485809   23.9717485809   26.6245002556
H     15.9917485809   23.3917485809   26.6345002556
C     17.2317485809   24.6917485809   25.3945002556
H     17.8617485809   25.5417485809   25.6745002556
C     16.0517485809   25.4417485809   24.7945002556
O     16.3017485809   25.9817485809   23.6945002556
C     17.9617485809   23.7517485809   24.4045002556
H     18.3317485809   24.2917485809   23.5345002556
C     19.1917485809   23.1517485809   25.1645002556
H     19.8017485809   23.9517485809   25.5645002556
H     19.0117485809   22.4017485809   25.9345002556
H     19.8817485809   22.8217485809   24.3845002556
C     17.1217485809   22.5717485809   23.9545002556
H     17.6117485809   21.9717485809   23.1845002556
H     16.9517485809   21.9017485809   24.7945002556
H     16.1017485809   22.8617485809   23.7045002556
N     14.8717485809   25.6017485809   25.4245002556
H     14.7917485809   25.1417485809   26.3145002556
C     13.6917485809   26.1517485809   24.7845002556
H     14.0217485809   26.7917485809   23.9645002556
C     12.7917485809   25.1217485809   24.1345002556
H     12.3617485809   24.4417485809   24.8745002556
H     13.3217485809   24.4417485809   23.4545002556
C     11.5317485809   25.4817485809   23.3745002556
C     10.2817485809   25.2017485809   23.8945002556
H     10.2017485809   24.6717485809   24.8345002556
C     11.7017485809   26.0517485809   22.0745002556
H     12.6717485809   26.3617485809   21.7245002556
C      9.1517485809   25.5817485809   23.1745002556
H      8.2217485809   25.2017485809   23.5845002556
C     10.5217485809   26.4517485809   21.3745002556
H     10.6217485809   26.9217485809   20.4145002556
C      9.2517485809   26.2017485809   21.9045002556
H      8.4217485809   26.5117485809   21.2945002556
C     12.3117485809   29.7717485809   14.0845002556
H     13.0217485809   30.4917485809   13.6745002556
H     11.9517485809   29.1917485809   13.2345002556
C     13.0517485809   28.8917485809   15.0945002556
O     13.6417485809   27.8517485809   14.8445002556
N     12.9017485809   29.1017485809   16.4045002556
H     12.2717485809   29.8517485809   16.6545002556
C     13.1217485809   28.0917485809   17.4645002556
H     14.0517485809   27.6017485809   17.1745002556
C     12.0617485809   26.9517485809   17.5845002556
O     12.4717485809   25.7817485809   17.7745002556
C     13.3017485809   28.8017485809   18.7745002556
H     12.4217485809   29.4217485809   18.9845002556
H     13.3917485809   28.1217485809   19.6245002556
C     14.5617485809   29.6117485809   18.8445002556
H     15.3917485809   28.9117485809   18.7045002556
H     14.6417485809   30.3317485809   18.0345002556
C     14.7017485809   30.2717485809   20.1945002556
H     15.4217485809   31.0917485809   20.1745002556
H     13.7117485809   30.5717485809   20.5145002556
N     15.1317485809   29.3817485809   21.2545002556
H     15.0217485809   28.3917485809   21.0545002556
C     15.7317485809   29.7217485809   22.3745002556
N     16.0717485809   30.9517485809   22.7045002556
H     15.9717485809   31.7317485809   22.0845002556
H     16.3217485809   31.0817485809   23.6745002556
N     15.9017485809   28.7817485809   23.2745002556
H     15.7117485809   27.8117485809   23.0745002556
H     16.3617485809   28.9617485809   24.1545002556
N     10.7917485809   27.1817485809   17.4145002556
H     10.4917485809   28.1317485809   17.2145002556
C      9.8017485809   26.1017485809   17.3445002556
H      9.8917485809   25.4117485809   18.1745002556
C     10.0217485809   25.2517485809   16.0045002556
O      9.7617485809   24.0417485809   16.0345002556
C      8.4317485809   26.7517485809   17.3545002556
H      8.5017485809   27.4917485809   16.5545002556
C      7.3017485809   25.7217485809   16.9645002556
H      7.2917485809   24.8317485809   17.5845002556
H      7.4517485809   25.3417485809   15.9545002556
H      6.2817485809   26.1217485809   17.0445002556
N     10.5317485809   25.8517485809   14.9245002556
H     10.5517485809   26.8617485809   14.8945002556
C     10.9017485809   25.1617485809   13.6845002556
H     10.1917485809   24.3617485809   13.4945002556
C     12.2417485809   24.4517485809   13.8745002556
O     12.3717485809   23.3417485809   13.3545002556
N     13.1717485809   24.9017485809   14.6845002556
H     13.0717485809   25.8317485809   15.0745002556
C     14.3817485809   24.1717485809   15.0645002556
H     14.7717485809   23.6117485809   14.2145002556
C     13.9817485809   22.9817485809   15.9345002556
O     14.4717485809   21.8717485809   15.7245002556
C     15.5417485809   25.1017485809   15.5845002556
H     15.2117485809   25.5217485809   16.5345002556
O     15.8717485809   26.0817485809   14.6045002556
H     15.1317485809   26.6817485809   14.5845002556
C     16.8617485809   24.3417485809   15.6945002556
H     17.4317485809   24.2817485809   14.7645002556
H     16.7717485809   23.3117485809   16.0345002556
H     17.5417485809   24.8817485809   16.3545002556
N     13.0117485809   23.1317485809   16.9045002556
H     12.6417485809   24.0517485809   17.0745002556
C     12.5317485809   22.0917485809   17.7645002556
H     13.3417485809   21.7317485809   18.4045002556
C     12.0617485809   20.9117485809   16.9945002556
O     12.5217485809   19.7817485809   17.0945002556
C     11.4017485809   22.6317485809   18.6745002556
H     10.7217485809   23.2217485809   18.0545002556
H     11.8817485809   23.3617485809   19.3145002556
C     10.5817485809   21.6617485809   19.6145002556
H      9.8617485809   21.1117485809   19.0145002556
C     11.4317485809   20.5817485809   20.2545002556
H     10.8917485809   20.0217485809   21.0245002556
H     12.3317485809   21.0217485809   20.6645002556
H     11.6417485809   19.8917485809   19.4345002556
C      9.8417485809   22.5517485809   20.5845002556
H      9.2517485809   23.3117485809   20.0645002556
H     10.6317485809   23.0117485809   21.1745002556
H      9.2017485809   21.9117485809   21.2045002556
N     11.0817485809   21.2217485809   16.0945002556
H     10.5517485809   22.0617485809   16.2745002556
C     10.3117485809   20.2717485809   15.2745002556
H      9.9817485809   19.4317485809   15.8745002556
C     11.2117485809   19.7417485809   14.1245002556
O     11.0917485809   18.6017485809   13.7645002556
N     12.2717485809   20.4417485809   13.6845002556
H     12.3317485809   21.3817485809   14.0445002556
C     13.2417485809   19.9717485809   12.7145002556
H     12.6817485809   19.3817485809   11.9845002556
C     13.8817485809   21.1317485809   11.8445002556
H     14.6517485809   20.8517485809   11.1345002556
H     14.4117485809   21.7917485809   12.5345002556
O     12.7817485809   21.8417485809   11.2745002556
H     12.6317485809   22.5617485809   11.8945002556
C     15.5317485809   18.4517485809   15.3045002556
H     16.3617485809   18.1217485809   14.6745002556
C     14.6717485809   17.1817485809   15.5545002556
O     15.1817485809   16.1017485809   15.2545002556
C     16.1617485809   19.0217485809   16.5745002556
H     16.7017485809   19.9617485809   16.4245002556
H     15.3417485809   19.1817485809   17.2745002556
C     17.1117485809   18.1017485809   17.2245002556
C     17.9017485809   17.1917485809   16.5445002556
H     17.9517485809   17.1517485809   15.4645002556
C     17.2517485809   18.1117485809   18.6545002556
H     16.6117485809   18.7417485809   19.2345002556
C     18.8517485809   16.3717485809   17.1445002556
H     19.4717485809   15.7817485809   16.4945002556
C     18.1017485809   17.1917485809   19.3145002556
H     18.0917485809   17.1017485809   20.3945002556
C     18.9917485809   16.3117485809   18.5745002556
H     19.6817485809   15.6917485809   19.1245002556
N     13.4117485809   17.2417485809   15.8945002556
H     13.0317485809   18.1117485809   16.2545002556
C     12.5717485809   16.1017485809   16.1845002556
H     11.6617485809   16.5417485809   16.6045002556
H     13.0017485809   15.4217485809   16.9245002556
C     15.6117485809   12.8717485809   17.0645002556
H     14.6117485809   13.2817485809   16.9545002556
C     15.5817485809   11.6217485809   17.9445002556
H     16.5217485809   11.0917485809   17.8645002556
H     15.4417485809   11.9317485809   18.9845002556
H     14.6717485809   11.0717485809   17.6945002556
C     16.6017485809   13.8717485809   17.4745002556
H     17.6517485809   13.7017485809   17.2445002556
H     16.4417485809   14.8117485809   16.9445002556
H     16.3917485809   14.0717485809   18.5245002556
C     10.8717485809   12.4917485809   19.1945002556
H     10.3217485809   13.2617485809   18.6445002556
C     11.5517485809   13.0417485809   20.3945002556
H     10.8017485809   13.5917485809   20.9645002556
H     12.3017485809   13.7617485809   20.0645002556
H     12.0117485809   12.2417485809   20.9845002556
C     11.8717485809   11.7917485809   18.2645002556
H     12.4217485809   11.0017485809   18.7745002556
H     12.4717485809   12.5817485809   17.8145002556
H     11.3017485809   11.5017485809   17.3745002556
C      9.4717485809   17.0617485809   20.2945002556
H     10.0417485809   17.9717485809   20.4245002556
H      9.6217485809   16.2717485809   21.0245002556
C      9.9717485809   16.4817485809   18.9545002556
H     10.8917485809   15.9117485809   19.1145002556
H      9.9817485809   17.2417485809   18.1845002556
H      9.1317485809   15.9017485809   18.5745002556
H     26.0008173119   20.4216841158   12.6592602490
H     27.6117212910   20.9781978418   13.3027385310
H     22.5692553778   17.4464739756   15.9754566177
H     23.7788186048   17.2356392328   19.9303070858
H     22.6619337681   16.0942347967   20.6164309098
H     19.5844675100   12.6514181166   22.9727414917
H     18.7665432683   13.6804243726   21.7813954534
H     14.6949368228   12.5123440209   25.0162620796
H     15.1070652100   18.1957870256   29.1891270387
H     12.0605333540   22.6087347786   28.8366837816
H     16.7375126557   22.9906965188   29.6206150177
H     13.1777011010   26.8811402754   25.3749601987
H     11.4673166802   30.2813195555   14.4994366206
H      8.2247207327   27.2969219145   18.2516209311
H     10.8534752030   25.8030948876   12.8293718466
H      9.4999386522   20.8038592905   14.8242527321
H     14.0038858875   19.3547802851   13.1427488374
H     14.9363501119   19.1488004471   14.7526675282
H     12.4120847024   15.4769768826   15.3306456012
H     15.8301925283   12.5713881532   16.0610233723
H     10.1484027006   11.7473343740   19.4543429505
H      8.4282419772   17.2774066123   20.1971063059

