10

  P      -0.879991      0.843606     -0.718891
  O      -0.965941      0.721254     -2.205225
  O      -1.416453     -0.350306      0.106708
  O      -0.776326      2.167554     -0.003720
  H       1.261812      1.225866      0.145982
  O       1.144517      0.402103     -0.358863
  H       1.052673     -0.360796      0.341847
  O       0.464278     -1.426055      1.211326
  H       0.589729     -2.227456      0.679351
  H      -0.474298     -0.995771      0.801484
